ptech18/13Bus_copy/IEEE13Node_notr_Power_elem_kVA.txt

CIRCUIT ELEMENT POWER FLOW

(Power Flow into element from indicated Bus)

Power Delivery Elements

  Bus Phase     kW     +j   kvar         kVA         PF

ELEMENT = "Vsource.SOURCE"
RG60     1     -1252.3 +j   -681.6     1425.8       0.8783
   TERMINAL TOTAL -1252.3 +j   -681.6     1425.8       0.8783
RG60     0         0.0 +j      0.0        0.0       1.0000
   TERMINAL TOTAL     0.0 +j      0.0        0.0       1.0000

ELEMENT = "Vsource.PHS2"
RG60     2      -978.3 +j   -374.0     1047.4       0.9341
   TERMINAL TOTAL  -978.3 +j   -374.0     1047.4       0.9341
RG60     0         0.0 +j      0.0        0.0       1.0000
   TERMINAL TOTAL     0.0 +j      0.0        0.0       1.0000

ELEMENT = "Vsource.PHS3"
RG60     3     -1347.5 +j   -667.2     1503.6       0.8962
   TERMINAL TOTAL -1347.5 +j   -667.2     1503.6       0.8962
RG60     0         0.0 +j      0.0        0.0       1.0000
   TERMINAL TOTAL     0.0 +j      0.0        0.0       1.0000

ELEMENT = "Line.650632"
RG60     1      1252.3 +j    681.6     1425.8       0.8783
RG60     2       978.3 +j    374.0     1047.4       0.9341
RG60     3      1347.5 +j    667.2     1503.6       0.8962
   TERMINAL TOTAL  3578.1 +j   1722.8     3971.2       0.9010
632      1     -1230.7 +j   -602.1     1370.1       0.8982
632      2      -981.6 +j   -341.7     1039.3       0.9444
632      3     -1306.1 +j   -586.1     1431.6       0.9123
   TERMINAL TOTAL -3518.4 +j  -1530.0     3836.6       0.9170

ELEMENT = "Line.632670"
632      1      1067.8 +j    487.0     1173.6       0.9098
632      2       525.7 +j    120.9      539.5       0.9746
632      3      1104.8 +j    355.3     1160.5       0.9520
   TERMINAL TOTAL  2698.3 +j    963.2     2865.0       0.9418
670      1     -1064.6 +j   -465.2     1161.8       0.9163
670      2      -527.7 +j   -119.3      541.0       0.9754
670      3     -1093.3 +j   -338.0     1144.3       0.9554
   TERMINAL TOTAL -2685.5 +j   -922.5     2839.5       0.9458

ELEMENT = "Line.670671"
670      1      1047.6 +j    455.2     1142.2       0.9172
670      2       461.7 +j     81.3      468.8       0.9848
670      3       976.3 +j    270.0     1012.9       0.9638
   TERMINAL TOTAL  2485.5 +j    806.5     2613.1       0.9512
671      1     -1039.8 +j   -411.6     1118.3       0.9298
671      2      -466.0 +j    -78.6      472.6       0.9861
671      3      -957.4 +j   -245.2      988.3       0.9687
   TERMINAL TOTAL -2463.2 +j   -735.4     2570.6       0.9582

ELEMENT = "Line.671680"
671      1        -0.0 +j     -0.0        0.0       0.0184
671      2         0.0 +j     -0.0        0.0      -0.0081
671      3         0.0 +j     -0.0        0.0      -0.0094
   TERMINAL TOTAL     0.0 +j     -0.0        0.0      -0.0000
680      1         0.0 +j      0.0        0.0       0.1909
680      2         0.0 +j      0.0        0.0       0.9757
680      3         0.0 +j      0.0        0.0       0.3242
   TERMINAL TOTAL     0.0 +j      0.0        0.0       0.3184

ELEMENT = "Line.632633"
632      1       162.9 +j    115.1      199.4       0.8167
632      2       121.6 +j     92.9      153.0       0.7947
632      3       121.8 +j     93.0      153.2       0.7949
   TERMINAL TOTAL   406.2 +j    300.9      505.6       0.8036
633      1      -162.5 +j   -114.6      198.8       0.8173
633      2      -121.4 +j    -92.6      152.7       0.7952
633      3      -121.5 +j    -92.7      152.8       0.7949
   TERMINAL TOTAL  -405.4 +j   -299.9      504.3       0.8040

ELEMENT = "Line.632645"
632      3        79.6 +j    137.9      159.2       0.4998
632      2       334.3 +j    128.0      357.9       0.9339
   TERMINAL TOTAL   413.8 +j    265.9      491.9       0.8413
645      3       -79.4 +j   -137.7      158.9       0.4994
645      2      -331.7 +j   -125.8      354.8       0.9350
   TERMINAL TOTAL  -411.1 +j   -263.5      488.3       0.8419

ELEMENT = "Line.645646"
645      3        79.4 +j    137.7      158.9       0.4994
645      2       161.7 +j      0.8      161.7       1.0000
   TERMINAL TOTAL   241.1 +j    138.5      278.0       0.8671
646      3       -79.1 +j   -137.5      158.6       0.4987
646      2      -161.4 +j     -0.6      161.4       1.0000
   TERMINAL TOTAL  -240.5 +j   -138.0      277.3       0.8673

ELEMENT = "Line.692675"
692      1       488.2 +j     -0.9      488.2      -1.0000
692      2        69.2 +j   -161.7      175.8      -0.3934
692      3       290.5 +j     21.5      291.3       0.9973
   TERMINAL TOTAL   847.9 +j   -141.1      859.6      -0.9864
675      1      -485.0 +j      2.9      485.0      -1.0000
675      2       -68.8 +j    162.1      176.2      -0.3908
675      3      -290.0 +j    -21.6      290.8       0.9972
   TERMINAL TOTAL  -843.8 +j    143.5      855.9      -0.9858

ELEMENT = "Line.671684"
671      1       124.7 +j     83.5      150.0       0.8308
671      3       166.5 +j    -16.4      167.3      -0.9952
   TERMINAL TOTAL   291.2 +j     67.1      298.8       0.9745
684      1      -124.4 +j    -83.3      149.7       0.8310
684      3      -166.1 +j     16.7      167.0      -0.9950
   TERMINAL TOTAL  -290.6 +j    -66.6      298.1       0.9747

ELEMENT = "Line.684611"
684      3       166.1 +j    -16.7      167.0      -0.9950
   TERMINAL TOTAL   166.1 +j    -16.7      167.0      -0.9950
611      3      -165.7 +j     17.1      166.6      -0.9947
   TERMINAL TOTAL  -165.7 +j     17.1      166.6      -0.9947

ELEMENT = "Line.684652"
684      1       124.4 +j     83.3      149.7       0.8310
   TERMINAL TOTAL   124.4 +j     83.3      149.7       0.8310
652      1      -123.6 +j    -83.1      148.9       0.8300
   TERMINAL TOTAL  -123.6 +j    -83.1      148.9       0.8300

ELEMENT = "Transformer.XFM1"
633      1       162.5 +j    114.6      198.8       0.8173
633      2       121.4 +j     92.6      152.7       0.7952
633      3       121.5 +j     92.7      152.8       0.7949
633      0         0.0 +j      0.0        0.0       1.0000
   TERMINAL TOTAL   405.4 +j    299.9      504.3       0.8040
634      1      -160.0 +j   -110.0      194.2       0.8240
634      2      -120.0 +j    -90.0      150.0       0.8000
634      3      -120.0 +j    -90.0      150.0       0.8000
634      0         0.0 +j      0.0        0.0       1.0000
   TERMINAL TOTAL  -400.0 +j   -290.0      494.1       0.8096

ELEMENT = "Line.671692"
671      1       531.5 +j    121.6      545.3       0.9748
671      2        69.2 +j   -161.7      175.9      -0.3937
671      3       416.3 +j     48.4      419.1       0.9933
   TERMINAL TOTAL  1017.1 +j      8.3     1017.1       1.0000
692      1      -531.0 +j   -121.6      544.7       0.9748
692      2       -69.2 +j    161.7      175.8      -0.3934
692      3      -416.0 +j    -48.4      418.8       0.9933
   TERMINAL TOTAL -1016.2 +j     -8.3     1016.2       1.0000

ELEMENT = "Capacitor.CAP1"
675      1         0.0 +j   -192.9      192.9       1.0000
675      2         0.0 +j   -222.9      222.9       1.0000
675      3        -0.0 +j   -190.4      190.4       0.0000
   TERMINAL TOTAL    -0.0 +j   -606.2      606.2       0.0000
675      0         0.0 +j      0.0        0.0       1.0000
675      0         0.0 +j      0.0        0.0       1.0000
675      0         0.0 +j      0.0        0.0       1.0000
   TERMINAL TOTAL     0.0 +j      0.0        0.0       1.0000

ELEMENT = "Capacitor.CAP2"
611      3         0.0 +j    -95.1       95.1      -0.0000
   TERMINAL TOTAL     0.0 +j    -95.1       95.1      -0.0000
611      0         0.0 +j      0.0        0.0       1.0000
   TERMINAL TOTAL     0.0 +j      0.0        0.0       1.0000

= = = = = = = = = = = = = = = = = = =  = = = = = = = = = = =  = =

Power Conversion Elements

  Bus Phase     kW   +j  kvar         kVA         PF

ELEMENT = "Load.671"
671      1     383.7 +j  206.5      435.7       0.8806
671      2     396.8 +j  240.3      463.8       0.8554
671      3     374.6 +j  213.2      431.0       0.8690
  TERMINAL TOTAL   1155.0 +j    660.0     1330.3       0.8682

ELEMENT = "Load.634A"
634      1     160.0 +j  110.0      194.2       0.8241
634      0       0.0 +j    0.0        0.0       1.0000
  TERMINAL TOTAL    160.0 +j    110.0      194.2       0.8241

ELEMENT = "Load.634B"
634      2     120.0 +j   90.0      150.0       0.8000
634      0       0.0 +j    0.0        0.0       1.0000
  TERMINAL TOTAL    120.0 +j     90.0      150.0       0.8000

ELEMENT = "Load.634C"
634      3     120.0 +j   90.0      150.0       0.8000
634      0       0.0 +j    0.0        0.0       1.0000
  TERMINAL TOTAL    120.0 +j     90.0      150.0       0.8000

ELEMENT = "Load.645"
645      2     170.0 +j  125.0      211.0       0.8056
645      0       0.0 +j    0.0        0.0       1.0000
  TERMINAL TOTAL    170.0 +j    125.0      211.0       0.8056

ELEMENT = "Load.646"
646      2     161.4 +j    0.6      161.4       1.0000
646      3      79.1 +j  137.5      158.6       0.4987
  TERMINAL TOTAL    240.5 +j    138.0      277.3       0.8673

ELEMENT = "Load.692"
692      3     125.5 +j   26.9      128.3       0.9777
692      1      42.8 +j  122.5      129.8       0.3298
  TERMINAL TOTAL    168.3 +j    149.5      225.1       0.7477

ELEMENT = "Load.675A"
675      1     485.0 +j  190.0      520.9       0.9311
675      0       0.0 +j    0.0        0.0       1.0000
  TERMINAL TOTAL    485.0 +j    190.0      520.9       0.9311

ELEMENT = "Load.675B"
675      2      68.8 +j   60.7       91.8       0.7498
675      0       0.0 +j    0.0        0.0       1.0000
  TERMINAL TOTAL     68.8 +j     60.7       91.8       0.7498

ELEMENT = "Load.675C"
675      3     290.0 +j  212.0      359.2       0.8073
675      0       0.0 +j    0.0        0.0       1.0000
  TERMINAL TOTAL    290.0 +j    212.0      359.2       0.8073

ELEMENT = "Load.611"
611      3     165.8 +j   78.0      183.2       0.9048
611      0       0.0 +j    0.0        0.0       1.0000
  TERMINAL TOTAL    165.8 +j     78.0      183.2       0.9048

ELEMENT = "Load.652"
652      1     123.6 +j   83.1      148.9       0.8301
652      0       0.0 +j    0.0        0.0       1.0000
  TERMINAL TOTAL    123.6 +j     83.1      148.9       0.8301

ELEMENT = "Load.670A"
670      1      17.0 +j   10.0       19.7       0.8619
670      0       0.0 +j    0.0        0.0       1.0000
  TERMINAL TOTAL     17.0 +j     10.0       19.7       0.8619

ELEMENT = "Load.670B"
670      2      66.0 +j   38.0       76.2       0.8666
670      0       0.0 +j    0.0        0.0       1.0000
  TERMINAL TOTAL     66.0 +j     38.0       76.2       0.8666

ELEMENT = "Load.670C"
670      3     117.0 +j   68.0      135.3       0.8646
670      0       0.0 +j    0.0        0.0       1.0000
  TERMINAL TOTAL    117.0 +j     68.0      135.3       0.8646


Total Circuit Losses =  111.1 +j  321.8
